3
Coordinates from ORCA-job co2_opt E -188.582292359597
  C       0.000000      0.000000      0.000000
  O       1.200000      0.000000      0.000000
  O      -1.200000      0.000000      0.000000
3
Coordinates from ORCA-job co2_opt E -188.588072996153
  C       0.000000      0.000000     -0.000000
  O       1.154318     -0.000000      0.000000
  O      -1.154318     -0.000000      0.000000
3
Coordinates from ORCA-job co2_opt E -188.588204697086
  C      -0.000000      0.000000     -0.000000
  O       1.160878     -0.000000      0.000000
  O      -1.160878     -0.000000      0.000000
3
Coordinates from ORCA-job co2_opt E -188.588207559685
  C      -0.000001      0.000000      0.000000
  O       1.160049     -0.000000     -0.000000
  O      -1.160048     -0.000000     -0.000000
3
Coordinates from ORCA-job co2_opt E -188.588207565122
  C       0.000004     -0.000001      0.000000
  O       1.160029      0.000000     -0.000000
  O      -1.160033      0.000000     -0.000000
