3
Coordinates from ORCA-job co2_opt_hess E -188.582292359597
  C       0.000000      0.000000      0.000000
  O       1.200000      0.000000      0.000000
  O      -1.200000      0.000000      0.000000
3
Coordinates from ORCA-job co2_opt_hess E -188.588103374639
  C       0.000000     -0.000000     -0.000000
  O       1.165132      0.000000      0.000000
  O      -1.165132      0.000000      0.000000
3
Coordinates from ORCA-job co2_opt_hess E -188.588205163927
  C       0.000000     -0.000000     -0.000000
  O       1.159267      0.000000      0.000000
  O      -1.159267      0.000000      0.000000
3
Coordinates from ORCA-job co2_opt_hess E -188.588207560932
  C       0.000000      0.000000     -0.000000
  O       1.160050     -0.000000      0.000000
  O      -1.160050     -0.000000      0.000000
3
Coordinates from ORCA-job co2_opt_hess E -188.588207565834
  C      -0.000002      0.000000      0.000000
  O       1.160043     -0.000000     -0.000000
  O      -1.160040     -0.000000     -0.000000
