3
Coordinates from ORCA-job h2o E -76.296648287234
  O       0.000000      0.000000      0.000000
  H       1.200000      0.000000      0.000000
  H      -1.200000      0.000000      0.000000
3
Coordinates from ORCA-job h2o E -76.347191731818
  O       0.000000      0.000000     -0.000000
  H       1.087745     -0.000000      0.000000
  H      -1.087745     -0.000000      0.000000
3
Coordinates from ORCA-job h2o E -76.379503978709
  O       0.000000     -0.000000     -0.000000
  H       0.975489      0.000000      0.000000
  H      -0.975489      0.000000      0.000000
3
Coordinates from ORCA-job h2o E -76.380682128821
  O       0.000000     -0.000000     -0.000000
  H       0.911728      0.000000      0.000000
  H      -0.911728      0.000000      0.000000
3
Coordinates from ORCA-job h2o E -76.382272109782
  O      -0.000001      0.000000     -0.000000
  H       0.941584     -0.000000      0.000000
  H      -0.941583     -0.000000      0.000000
3
Coordinates from ORCA-job h2o E -76.382297795036
  O       0.000004      0.000000     -0.000000
  H       0.938415     -0.000000      0.000000
  H      -0.938418     -0.000000      0.000000
3
Coordinates from ORCA-job h2o E -76.382297978808
  O      -0.000000      0.000000     -0.000000
  H       0.938124     -0.000000      0.000000
  H      -0.938124     -0.000000      0.000000
