! B3LYP def2-SVP TightSCF Freq
%output
  PrintLevel 5
end
* xyz 0 1
   C         -0.0000014013         -0.0013879213         -0.0289426851
   O          0.6155937120          0.0004514125          0.0094134748
   O         -0.6155923099          0.0004513865          0.0094129693
*
%elprop
 Polar 1
end
